Case14Bus.m
 function mpc = case14
%CASE14    Power flow data for IEEE 14 bus test case.
%   Please see CASEFORMAT for details on the case file format.
%   This data was converted from IEEE Common Data Format
%   (ieee14cdf.txt) on 15-Oct-2014 by cdf2matp, rev. 2393
%   See end of file for warnings generated during conversion.
%
%   Converted from IEEE CDF file from:
%       http://www.ee.washington.edu/research/pstca/
%
%  08/19/93 UW ARCHIVE           100.0  1962 W IEEE 14 Bus Test Case

%   MATPOWER
%   $Id: case14.m 2394 2014-10-15 20:39:39Z ray $

%% MATPOWER Case Format : Version 2
mpc.version = '2';

%%-----  Power Flow Data  -----%%
%% system MVA base
mpc.baseMVA = 100;

%% bus data
%    bus_i    type    Pd    Qd    Gs    Bs    area    Vm    Va    baseKV    zone    Vmax    Vmin
mpc.bus = [
	1	3	0	0	0	0	1	1.06	0	0	1	1.06	0.94;
	2	2	21.7	12.7	0	0	1	1.045	-4.98	0	1	1.06	0.94;
	3	2	94.2	19	0	0	1	1.01	-12.72	0	1	1.06	0.94;
	4	1	47.8	-3.9	0	0	1	1.019	-10.33	0	1	1.06	0.94;
	5	1	7.6	1.6	0	0	1	1.02	-8.78	0	1	1.06	0.94;
	6	2	11.2	7.5	0	0	1	1.07	-14.22	0	1	1.06	0.94;
	7	1	0	0	0	0	1	1.062	-13.37	0	1	1.06	0.94;
	8	2	0	0	0	0	1	1.09	-13.36	0	1	1.06	0.94;
	9	1	29.5	16.6	0	0	1	1.056	-14.94	0	1	1.06	0.94;
	10	1	9	5.8	0	0	1	1.051	-15.1	0	1	1.06	0.94;
	11	1	3.5	1.8	0	0	1	1.057	-14.79	0	1	1.06	0.94;
	12	1	6.1	1.6	0	0	1	1.055	-15.07	0	1	1.06	0.94;
	13	1	13.5	5.8	0	0	1	1.05	-15.16	0	1	1.06	0.94;
	14	1	14.9	5	0	0	1	1.036	-16.04	0	1	1.06	0.94;

];

%% generator data
%    bus    Pg    Qg    Qmax    Qmin    Vg    mBase    status    Pmax    Pmin    Pc1    Pc2    Qc1min    Qc1max    Qc2min    Qc2max    ramp_agc    ramp_10    ramp_30    ramp_q    apf
mpc.gen = [
1	232.4	-16.9	10	0	1.0	100	1	100	0	0	0	0	0	0	0	0	0	0	0	0;
2	40	42.4	50	-40	1.0	100	1	50	0	0	0	0	0	0	0	0	0	0	0	0;
3	0	23.4	40	0	1.0	100	1	80	0	0	0	0	0	0	0	0	0	0	0	0;
6	0	12.2	24	-6	1.0	100	1	20	0	0	0	0	0	0	0	0	0	0	0	0;
8	0	17.4	24	-6	1.0	100	1	10	0	0	0	0	0	0	0	0	0	0	0	0;

];

%% branch data
%    fbus    tbus    r    x    b    rateA    rateB    rateC    ratio    angle    status    angmin    angmax
mpc.branch = [
	1	2	0	0.05917	0	10000	0	0	0	0	1	-360	360;
	1	5	0	0.22304	0	10000	0	0	0	0	1	-360	360;
	2	3	0	0.19797	0	10000	0	0	0	0	1	-360	360;
	2	4	0	0.17632	0	10000	0	0	0	0	1	-360	360;
	2	5	0	0.17388	0	10000	0	0	0	0	1	-360	360;
	3	4	0	0.17103	0	10000	0	0	0	0	1	-360	360;
	4	5	0	0.04211	0	10000	0	0	0	0	1	-360	360;
	4	7	0	0.20912	0	10000	0	0	0	0	1	-360	360;
	4	9	0	0.55618	0	10000	0	0	0	0	1	-360	360;
	5	6	0	0.25202	0	10000	0	0	0	0	1	-360	360;
	6	11	0	0.1989	0	10000	0	0	0	0	1	-360	360;
	6	12	0	0.25581	0	10000	0	0	0	0	1	-360	360;
	6	13	0	0.13027	0	10000	0	0	0	0	1	-360	360;
	7	8	0	0.17615	0	10000	0	0	0	0	1	-360	360;
	7	9	0	0.11001	0	10000	0	0	0	0	1	-360	360;
	9	10	0	0.0845	0	10000	0	0	0	0	1	-360	360;
	9	14	0	0.27038	0	10000	0	0	0	0	1	-360	360;
	10	11	0	0.19207	0	10000	0	0	0	0	1	-360	360;
	12	13	0	0.19988	0	10000	0	0	0	0	1	-360	360;
	13	14	0	0.34802	0	10000	0	0	0	0	1	-360	360;
];

%%-----  OPF Data  -----%%
%% generator cost data
%    1    startup    shutdown    n    x1    y1    ...    xn    yn
%    2    startup    shutdown    n    c(n-1)    ...    c0
mpc.gencost = [
    2    0    0    3    0.00    00    0;
    2    0    0    3    0.00    00    0;
    2    0    0    3    0.00    00    0;
    2    0    0    3    0.00    00    0;
    2    0    0    3    0.00    00    0;
];